%mem=8GB
%nprocshared=4
%chk=top.chk
# b3lyp/6-31g* empiricaldispersion=gd3bj 

Title Card Required

0 1
 Ni                -5.34084000    5.48824000    3.25430000
 C                 -2.35919000    4.79533000    3.28680000
 C                 -2.35919000    6.18114000    3.22180000
 C                  4.07296000    4.79218000    3.25946000
 C                  4.07296000    6.18429000    3.24914000
 C                  0.16362800    5.48824000    3.25430000
 C                  1.54769000    5.48824000    3.25430000
 S                 -0.79139100    4.03982000    3.37994000
 S                 -0.79139100    6.93665000    3.12866000
 S                  2.50799000    4.03580000    3.32825000
 S                  2.50799000    6.94067000    3.18035000
 S                  5.53619000    3.94166000    3.10942000
 S                  5.53619000    7.03481000    3.39918000
 S                 -3.82091000    3.92436000    3.34956000
 S                 -3.82091000    7.05211000    3.15904000
 Ni                 7.05251000    5.48824000    3.25430000
 S                 -6.85716000    3.94166000    3.10942000
 S                 -6.85716000    7.03481000    3.39918000
 C                 -8.32246000    4.79218000    3.25946000
 C                 -8.32246000    6.18429000    3.24914000
 C                -10.84770000    5.48824000    3.25430000
 S                 -9.88743000    4.03580000    3.32825000
 S                 -9.88743000    6.94067000    3.18035000
 C                 10.03450000    4.79533000    3.28680000
 C                 10.03450000    6.18114000    3.22180000
 C                 12.55740000    5.48824000    3.25430000
 S                 11.60230000    4.03982000    3.37994000
 S                 11.60230000    6.93665000    3.12866000
 S                  8.57282000    3.92436000    3.34956000
 S                  8.57282000    7.05211000    3.15904000
 H                 13.62740000    5.48824172    3.25430034
 H                -11.91770000    5.48824170    3.25430020
Ni -5.0908400000 5.4882400000 6.8043000000
C -2.1091900000 4.7953300000 6.8368000000
C -2.1091900000 6.1811400000 6.7718000000
C 4.3229600000 4.7921800000 6.8094600000
C 4.3229600000 6.1842900000 6.7991400000
C 0.4136280000 5.4882400000 6.8043000000
C 1.7976900000 5.4882400000 6.8043000000
S -0.5413910000 4.0398200000 6.9299400000
S -0.5413910000 6.9366500000 6.6786600000
S 2.7579900000 4.0358000000 6.8782500000
S 2.7579900000 6.9406700000 6.7303500000
S 5.7861900000 3.9416600000 6.6594200000
S 5.7861900000 7.0348100000 6.9491800000
S -3.5709100000 3.9243600000 6.8995600000
S -3.5709100000 7.0521100000 6.7090400000
Ni 7.3025100000 5.4882400000 6.8043000000
S -6.6071600000 3.9416600000 6.6594200000
S -6.6071600000 7.0348100000 6.9491800000
C -8.0724600000 4.7921800000 6.8094600000
C -8.0724600000 6.1842900000 6.7991400000
C -10.5977000000 5.4882400000 6.8043000000
S -9.6374300000 4.0358000000 6.8782500000
S -9.6374300000 6.9406700000 6.7303500000
C 10.2845000000 4.7953300000 6.8368000000
C 10.2845000000 6.1811400000 6.7718000000
C 12.8074000000 5.4882400000 6.8043000000
S 11.8523000000 4.0398200000 6.9299400000
S 11.8523000000 6.9366500000 6.6786600000
S 8.8228200000 3.9243600000 6.8995600000
S 8.8228200000 7.0521100000 6.7090400000
H -11.6677000000 5.4882417000 6.8043002000
H 13.8774000000 5.4882417200 6.8043003400

