%mem=8GB
%nprocshared=4
%chk=para.chk
# B3LYP/6-31G* EmpiricalDispersion=GD3BJ 

Title Card Required

0 1
 Ni                -5.34057771    5.54835300    3.25430000
 C                 -2.36508794    4.82944991    3.28680000
 C                 -2.35299462    6.21520714    3.22180000
 C                  4.06678965    4.77016965    3.25946000
 C                  4.07893795    6.16222664    3.24914000
 C                  0.16368070    5.50031807    3.25430000
 C                  1.54769000    5.48824000    3.25430000
 S                 -0.80394162    4.06028722    3.37994000
 S                 -0.77866233    6.95700692    3.12866000
 S                  2.49527867    4.02747521    3.32825000
 S                  2.52062812    6.93223460    3.18035000
 S                  5.52254184    3.90691310    3.10942000
 S                  5.54953433    6.99994532    3.39918000
 S                 -3.83435283    3.97126883    3.34956000
 S                 -3.80705841    7.09889973    3.15904000
 Ni                 7.05230039    5.44020199    3.25430000
 S                 -6.87033625    4.01506411    3.10942000
 S                 -6.84334377    7.10809633    3.39918000
 C                 -8.32815837    4.87833872    3.25946000
 C                 -8.31601007    6.27039571    3.24914000
 C                -10.84722802    5.59640881    3.25430000
 S                 -9.89966935    4.13564429    3.32825000
 S                 -9.87431990    7.04040368    3.18035000
 C                 10.02813014    4.72129594    3.28680000
 C                 10.04022346    6.10705317    3.22180000
 C                 12.55698078    5.39216337    3.25430000
 S                 11.58927746    3.95213324    3.37994000
 S                 11.61455675    6.84885294    3.12866000
 S                  8.55890525    3.86311450    3.34956000
 S                  8.58619967    6.99074541    3.15904000
 H                 13.62694006    5.38282770    3.25430034
 H                -11.91718726    5.60574790    3.25430020
 Ni                -5.34057771    5.42812700    6.80430000
 C                 -2.35299453    4.76126286    6.83680000
 C                 -2.36508785    6.14702009    6.77180000
 C                  4.07893804    4.81424336    6.80946000
 C                  4.06678974    6.20630035    6.79914000
 C                  0.16368070    5.47616193    6.80430000
 C                  1.54769000    5.48824000    6.80430000
 S                 -0.77866225    4.01946308    6.92994000
 S                 -0.80394154    6.91618278    6.67866000
 S                  2.52062820    4.04423540    6.87825000
 S                  2.49527875    6.94899479    6.73035000
 S                  5.54953442    3.97652468    6.65942000
 S                  5.52254193    7.06955690    6.94918000
 S                 -3.80705833    3.87757027    6.89956000
 S                 -3.83435275    7.00520117    6.70904000
 Ni                 7.05230039    5.53627801    6.80430000
 S                 -6.84334368    3.86837367    6.65942000
 S                 -6.87033617    6.96140589    6.94918000
 C                 -8.31600998    4.70607429    6.80946000
 C                 -8.32815828    6.09813128    6.79914000
 C                -10.84722802    5.38007119    6.80430000
 S                 -9.87431982    3.93606632    6.87825000
 S                 -9.89966927    6.84082572    6.73035000
 C                 10.04022355    4.86941683    6.83680000
 C                 10.02813023    6.25517407    6.77180000
 C                 12.55698078    5.58431663    6.80430000
 S                 11.61455684    4.12761706    6.92994000
 S                 11.58927755    7.02433676    6.67866000
 S                  8.58619976    3.98572459    6.89956000
 S                  8.55890534    7.11335550    6.70904000
 H                -11.91718729    5.37073550    6.80430020
 H                 13.62694003    5.59365574    6.80430034


 