%mem=8GB
%nprocshared=4
%chk=para.chk
# B3LYP/6-31G* EmpiricalDispersion=GD3BJ 

Title Card Required

0 1
 Ni                -5.33920072    5.63851247    3.25430000
 C                 -2.37337602    4.88072302    3.28680000
 C                 -2.34314474    6.26620323    3.22180000
 C                  4.05717458    4.73725718    3.25946000
 C                  4.08754330    6.12903589    3.24914000
 C                  0.16395737    5.51843315    3.25430000
 C                  1.54769000    5.48824000    3.25430000
 S                 -0.82243147    4.09119146    3.37994000
 S                 -0.75923746    6.98733209    3.12866000
 S                  2.47607667    4.01519681    3.32825000
 S                  2.53944607    6.91937553    3.18035000
 S                  5.50150238    3.85501938    3.10942000
 S                  5.56897909    6.94743330    3.39918000
 S                 -3.85374827    4.04184754    3.34956000
 S                 -3.78551678    7.16885322    3.15904000
 Ni                 7.05120000    5.36815300    3.25430000
 S                 -6.88889833    4.12537886    3.10942000
 S                 -6.82142163    7.21779277    3.39918000
 C                 -8.33529564    5.00766181    3.25946000
 C                 -8.30492692    6.39944052    3.24914000
 C                -10.84475023    5.75864397    3.25430000
 S                 -9.91639355    4.28560144    3.32825000
 S                 -9.85302416    7.18978016    3.18035000
 C                 10.01736461    4.61035614    3.28680000
 C                 10.04759590    5.99583635    3.22180000
 C                 12.55477998    5.24806447    3.25430000
 S                 11.56831016    3.82082455    3.37994000
 S                 11.63150417    6.71696519    3.12866000
 S                  8.53703235    3.77147978    3.34956000
 S                  8.60526385    6.89848546    3.15904000
 H                 13.62452540    5.22472427    3.25430034
 H                -11.91449556    5.78198759    3.25430020
 Ni                -5.33920072    5.33796753    6.80430000
 C                 -2.34314451    4.71026677    6.83680000
 C                 -2.37337580    6.09574698    6.77180000
 C                  4.08754352    4.84743411    6.80946000
 C                  4.05717481    6.23921282    6.79914000
 C                  0.16395737    5.45804685    6.80430000
 C                  1.54769000    5.48824000    6.80430000
 S                 -0.75923725    3.98913791    6.92994000
 S                 -0.82243126    6.88527855    6.67866000
 S                  2.53944628    4.05709448    6.87825000
 S                  2.47607688    6.96127319    6.73035000
 S                  5.56897931    4.02903671    6.65942000
 S                  5.50150260    7.12145062    6.94918000
 S                 -3.78551656    3.80761678    6.89956000
 S                 -3.85374806    6.93462246    6.70904000
 Ni                 7.05120000    5.60832700    6.80430000
 S                 -6.82142141    3.75867723    6.65942000
 S                 -6.88889812    6.85109115    6.94918000
 C                 -8.30492670    4.57702948    6.80946000
 C                 -8.33529542    5.96880820    6.79914000
 C                -10.84475023    5.21783603    6.80430000
 S                 -9.85302395    3.78668984    6.87825000
 S                 -9.91639334    6.69086857    6.73035000
 C                 10.04759612    4.98063365    6.83680000
 C                 10.01736484    6.36611387    6.77180000
 C                 12.55477998    5.72841553    6.80430000
 S                 11.63150439    4.25950482    6.92994000
 S                 11.56831038    7.15564545    6.67866000
 S                  8.60526407    4.07798454    6.89956000
 S                  8.53703257    7.20499023    6.70904000
 H                -11.91449564    5.19449581    6.80430020
 H                 13.62452532    5.75175917    6.80430034


 