%mem=8GB
%nprocshared=4
%chk=para.chk
# B3LYP/6-31G* EmpiricalDispersion=GD3BJ 

Title Card Required

0 1
 Ni                -5.33428365    5.78871346    3.25430000
 C                 -2.38569583    4.96640521    3.28680000
 C                 -2.32524764    6.35089622    3.22180000
 C                  4.04019479    4.68269176    3.25946000
 C                  4.10091778    6.07347678    3.24914000
 C                  0.16494532    5.54861194    3.25430000
 C                  1.54769000    5.48824000    3.25430000
 S                 -0.85234391    4.14322786    3.37994000
 S                 -0.72598596    7.03730071    3.12866000
 S                  2.44372146    3.99529470    3.32825000
 S                  2.57043011    6.89739991    3.18035000
 S                  5.46493296    3.76915607    3.10942000
 S                  5.59985427    6.85936208    3.39918000
 S                 -3.88401577    4.16002351    3.34956000
 S                 -3.74758523    7.28479659    3.15904000
 Ni                 7.04727063    5.24812312    3.25430000
 S                 -6.91662132    4.30974641    3.10942000
 S                 -6.78170001    7.39995242    3.39918000
 C                 -8.34342752    5.22337239    3.25946000
 C                 -8.28270453    6.61415741    3.24914000
 C                -10.83590234    6.02891932    3.25430000
 S                 -9.93990084    4.53597533    3.32825000
 S                 -9.81319219    7.43808054    3.18035000
 C                  9.99619813    4.42580004    3.28680000
 C                 10.05664631    5.81029106    3.22180000
 C                 12.54692120    5.00800319    3.25430000
 S                 11.52955105    3.60262265    3.37994000
 S                 11.65590900    6.49669551    3.12866000
 S                  8.49791815    3.61941660    3.34956000
 S                  8.63434868    6.74418968    3.15904000
 H                 13.61590287    4.96133217    3.25430034
 H                -11.90488386    6.07559376    3.25430020
 Ni                -5.33428365    5.18776654    6.80430000
 C                 -2.32524721    4.62557378    6.83680000
 C                 -2.38569539    6.01006480    6.77180000
 C                  4.10091821    4.90299323    6.80946000
 C                  4.04019523    6.29377824    6.79914000
 C                  0.16494532    5.42786806    6.80430000
 C                  1.54769000    5.48824000    6.80430000
 S                 -0.72598552    3.93916929    6.92994000
 S                 -0.85234347    6.83324215    6.67866000
 S                  2.57043055    4.07907010    6.87825000
 S                  2.44372190    6.98117531    6.73035000
 S                  5.59985470    4.11710793    6.65942000
 S                  5.46493340    7.20731393    6.94918000
 S                 -3.74758479    3.69167342    6.89956000
 S                 -3.88401533    6.81644650    6.70904000
 Ni                 7.04727063    5.72835688    6.80430000
 S                 -6.78169957    3.57651759    6.65942000
 S                 -6.91662088    6.66672360    6.94918000
 C                 -8.28270409    4.36231260    6.80946000
 C                 -8.34342708    5.75309762    6.79914000
 C                -10.83590234    4.94756068    6.80430000
 S                 -9.81319176    3.53838947    6.87825000
 S                 -9.93990041    6.44049468    6.73035000
 C                 10.05664675    5.16617895    6.83680000
 C                  9.99619856    6.55066997    6.77180000
 C                 12.54692120    5.96847681    6.80430000
 S                 11.65590943    4.47977450    6.92994000
 S                 11.52955148    7.37384736    6.67866000
 S                  8.63434912    4.23228033    6.89956000
 S                  8.49791858    7.35705341    6.70904000
 H                -11.90488401    4.90088964    6.80430020
 H                 13.61590272    6.01515127    6.80430034


 