%mem=8GB
%nprocshared=4
%chk=para.chk
# B3LYP/6-31G* EmpiricalDispersion=GD3BJ 

Title Card Required

0 1
 Ni                 1.79119577    0.67709102   -6.15092306
 C                  1.73372824   -0.39803028   -3.28522439
 C                  1.83059939    0.97404521   -3.10433990
 C                  1.74150449   -1.24112497    3.09148651
 C                  1.78385533    0.13846403    3.27319333
 C                  1.77452195   -0.04119272   -0.69354655
 C                  1.77032943   -0.22180041    0.67867461
 S                  1.61847933   -1.34929701   -1.82945194
 S                  1.93635013    1.51614450   -1.45133982
 S                  1.66006860   -1.78502089    1.44117767
 S                  1.87477226    1.09078907    1.82033924
 S                  1.86750056   -2.27856224    4.43118320
 S                  1.64899460    0.79402449    4.83492037
 S                  1.65537116   -1.06911842   -4.84812355
 S                  1.91781199    2.02661607   -4.43987031
 Ni                 1.75365454   -0.94013009    6.13640011
 S                  1.90504179   -0.66134113   -7.85613998
 S                  1.68653583    2.41124561   -7.45240280
 C                  1.77905199    0.37636626   -9.19788895
 C                  1.82140283    1.75595526   -9.01618214
 C                  1.80787684    1.39568690  -11.61067111
 S                  1.69761610   -0.16752966  -10.84819780
 S                  1.91231976    2.70828030  -10.46903622
 C                  1.69618598   -2.01529576    9.00243588
 C                  1.79305713   -0.64322027    9.18332036
 C                  1.73697945   -1.65846890   11.59419501
 S                  1.58093706   -2.96656262   10.45820931
 S                  1.89880787   -0.10112111   10.83632143
 S                  1.61782878   -2.68638912    7.43957637
 S                  1.88026961    0.40934537    7.84782962
 H                  1.73373796   -1.79809260   12.65504124
 H                  1.81111786    1.53531401  -12.67151689
 Ni                -1.79119577   -0.67709102   -6.15092306
 C                 -1.83059939   -0.97404521   -3.10433990
 C                 -1.73372824    0.39803028   -3.28522439
 C                 -1.78385533   -0.13846403    3.27319333
 C                 -1.74150449    1.24112497    3.09148651
 C                 -1.77452195    0.04119272   -0.69354655
 C                 -1.77032943    0.22180041    0.67867461
 S                 -1.93635013   -1.51614450   -1.45133982
 S                 -1.61847933    1.34929701   -1.82945194
 S                 -1.87477226   -1.09078907    1.82033924
 S                 -1.66006860    1.78502089    1.44117767
 S                 -1.64899460   -0.79402449    4.83492037
 S                 -1.86750056    2.27856224    4.43118320
 S                 -1.91781199   -2.02661607   -4.43987031
 S                 -1.65537116    1.06911842   -4.84812355
 Ni                -1.75365454    0.94013009    6.13640011
 S                 -1.68653583   -2.41124561   -7.45240280
 S                 -1.90504179    0.66134113   -7.85613998
 C                 -1.82140283   -1.75595526   -9.01618214
 C                 -1.77905199   -0.37636626   -9.19788895
 C                 -1.80787684   -1.39568690  -11.61067111
 S                 -1.91231976   -2.70828030  -10.46903622
 S                 -1.69761610    0.16752966  -10.84819780
 C                 -1.79305713    0.64322027    9.18332036
 C                 -1.69618598    2.01529576    9.00243588
 C                 -1.73697945    1.65846890   11.59419501
 S                 -1.89880787    0.10112111   10.83632143
 S                 -1.58093706    2.96656262   10.45820931
 S                 -1.88026961   -0.40934537    7.84782962
 S                 -1.61782878    2.68638912    7.43957637
 H                 -1.81111786   -1.53531401  -12.67151689
 H                 -1.73373796    1.79809260   12.65504124

