%mem=8GB
%nprocshared=4
%chk=para.chk
# B3LYP/6-31G* EmpiricalDispersion=GD3BJ 

Title Card Required

0 1
 Ni                 1.83839351    2.71030004   -5.46055567
 C                  1.75737680    0.62071483   -3.22482599
 C                  1.85021436    1.81902961   -2.53192106
 C                  1.71001013   -2.59785579    2.34400428
 C                  1.74830905   -1.39281745    3.04005927
 C                  1.77452195   -0.04119272   -0.69354655
 C                  1.75846187   -0.73303734    0.50508630
 S                  1.63088389   -0.81492645   -2.24482713
 S                  1.94032310    1.68729414   -0.79641240
 S                  1.64419453   -2.46885281    0.61051058
 S                  1.85044318    0.04272810    2.06294542
 S                  1.82593537   -4.06912954    3.18593847
 S                  1.59842639   -1.38437961    4.73251379
 S                  1.69408822    0.59875564   -4.92619757
 S                  1.94742533    3.30231513   -3.36232279
 Ni                 1.69458624   -3.48470606    5.27240027
 S                  1.96974265    2.12587655   -7.54701747
 S                  1.74223366    4.81062649   -6.00044215
 C                  1.85384142    3.59818503   -8.39074433
 C                  1.89214035    4.80322337   -7.69468934
 C                  1.90229282    5.46298848  -10.22963633
 S                  1.78802582    3.72718801  -10.12423803
 S                  1.99427447    6.23876892   -8.67180319
 C                  1.61356558   -5.57446121    7.50842440
 C                  1.70640315   -4.37614644    8.20132932
 C                  1.63070978   -6.23640976   10.03977485
 S                  1.48707267   -7.01010300    8.48842413
 S                  1.79651187   -4.50788241    9.93683885
 S                  1.55027654   -5.59644040    5.80708745
 S                  1.80361365   -2.89288092    7.37096224
 H                  1.61829365   -6.77126418   10.96642289
 H                  1.91470849    5.99784587  -11.15628266
 Ni                -1.83839351   -2.71030004   -5.46055567
 C                 -1.85021436   -1.81902961   -2.53192106
 C                 -1.75737680   -0.62071483   -3.22482599
 C                 -1.74830905    1.39281745    3.04005927
 C                 -1.71001013    2.59785579    2.34400428
 C                 -1.77452195    0.04119272   -0.69354655
 C                 -1.75846187    0.73303734    0.50508630
 S                 -1.94032310   -1.68729414   -0.79641240
 S                 -1.63088389    0.81492645   -2.24482713
 S                 -1.85044318   -0.04272810    2.06294542
 S                 -1.64419453    2.46885281    0.61051058
 S                 -1.59842639    1.38437961    4.73251379
 S                 -1.82593537    4.06912954    3.18593847
 S                 -1.94742533   -3.30231513   -3.36232279
 S                 -1.69408822   -0.59875564   -4.92619757
 Ni                -1.69458624    3.48470606    5.27240027
 S                 -1.74223366   -4.81062649   -6.00044215
 S                 -1.96974265   -2.12587655   -7.54701747
 C                 -1.89214035   -4.80322337   -7.69468934
 C                 -1.85384142   -3.59818503   -8.39074433
 C                 -1.90229282   -5.46298848  -10.22963633
 S                 -1.99427447   -6.23876892   -8.67180319
 S                 -1.78802582   -3.72718801  -10.12423803
 C                 -1.70640315    4.37614644    8.20132932
 C                 -1.61356558    5.57446121    7.50842440
 C                 -1.63070978    6.23640976   10.03977485
 S                 -1.79651187    4.50788241    9.93683885
 S                 -1.48707267    7.01010300    8.48842413
 S                 -1.80361365    2.89288092    7.37096224
 S                 -1.55027654    5.59644040    5.80708745
 H                 -1.91470849   -5.99784587  -11.15628266
 H                 -1.61829365    6.77126418   10.96642289

