%mem=8GB
%nprocshared=4
%chk=para.chk
# B3LYP/6-31G* EmpiricalDispersion=GD3BJ 

Title Card Required

0 1
 Ni                 1.85228703    3.30881261   -5.06053462
 C                  1.76491311    0.94536786   -3.11684947
 C                  1.85541348    2.04300010   -2.27322189
 C                  1.70131672   -2.97235532    1.98420058
 C                  1.73726783   -1.86845723    2.83166344
 C                  1.77452195   -0.04119272   -0.69354655
 C                  1.75496844   -0.88352936    0.40450366
 S                  1.63573718   -0.60585389   -2.33295612
 S                  1.94029085    1.68590482   -0.56947809
 S                  1.64072681   -2.61823693    0.28217152
 S                  1.84207636   -0.31770204    2.05054414
 S                  1.81498312   -4.54093678    2.62729501
 S                  1.58225749   -2.08091194    4.51028582
 S                  1.70678287    1.14562274   -4.80672278
 S                  1.95484499    3.62194342   -2.90266947
 Ni                 1.67719839   -4.23374892    4.77177100
 S                  1.99007176    3.00162475   -7.20501061
 S                  1.75734613    5.46164959   -5.32201980
 C                  1.87643460    4.57146601   -7.84974728
 C                  1.91238571    5.67536409   -7.00228442
 C                  1.93008590    6.66027370   -9.42942040
 S                  1.81584469    4.92558439   -9.55177634
 S                  2.01719425    7.22611929   -7.78340372
 C                  1.58981966   -6.59740059    6.71572589
 C                  1.68032004   -5.49976835    7.55935347
 C                  1.59942735   -7.58401108    9.13909387
 S                  1.46064372   -8.14862295    7.49962003
 S                  1.76519739   -5.85686424    9.26309806
 S                  1.53168886   -6.39717006    5.02588432
 S                  1.77975098   -3.92084937    6.92993762
 H                  1.58431048   -8.23520900    9.98798299
 H                  1.94520230    7.31147436  -10.27830744
 Ni                -1.85228703   -3.30881261   -5.06053462
 C                 -1.85541348   -2.04300010   -2.27322189
 C                 -1.76491311   -0.94536786   -3.11684947
 C                 -1.73726783    1.86845723    2.83166344
 C                 -1.70131672    2.97235532    1.98420058
 C                 -1.77452195    0.04119272   -0.69354655
 C                 -1.75496844    0.88352936    0.40450366
 S                 -1.94029085   -1.68590482   -0.56947809
 S                 -1.63573718    0.60585389   -2.33295612
 S                 -1.84207636    0.31770204    2.05054414
 S                 -1.64072681    2.61823693    0.28217152
 S                 -1.58225749    2.08091194    4.51028582
 S                 -1.81498312    4.54093678    2.62729501
 S                 -1.95484499   -3.62194342   -2.90266947
 S                 -1.70678287   -1.14562274   -4.80672278
 Ni                -1.67719839    4.23374892    4.77177100
 S                 -1.75734613   -5.46164959   -5.32201980
 S                 -1.99007176   -3.00162475   -7.20501061
 C                 -1.91238571   -5.67536409   -7.00228442
 C                 -1.87643460   -4.57146601   -7.84974728
 C                 -1.93008590   -6.66027370   -9.42942040
 S                 -2.01719425   -7.22611929   -7.78340372
 S                 -1.81584469   -4.92558439   -9.55177634
 C                 -1.68032004    5.49976835    7.55935347
 C                 -1.58981966    6.59740059    6.71572589
 C                 -1.59942735    7.58401108    9.13909387
 S                 -1.76519739    5.85686424    9.26309806
 S                 -1.46064372    8.14862295    7.49962003
 S                 -1.77975098    3.92084937    6.92993762
 S                 -1.53168886    6.39717006    5.02588432
 H                 -1.94520230   -7.31147436  -10.27830744
 H                 -1.58431048    8.23520900    9.98798299

