%mem=8GB
%nprocshared=4
%chk=para.chk
# B3LYP/6-31G* EmpiricalDispersion=GD3BJ 

Title Card Required

0 1
 Ni                 1.86484997    3.85000566   -4.58579320
 C                  1.77205786    1.25315347   -2.96740957
 C                  1.85978449    2.23129656   -1.98749403
 C                  1.69378757   -3.29669979    1.57857988
 C                  1.72695232   -2.31283407    2.56295028
 C                  1.77452195   -0.04119272   -0.69354655
 C                  1.75180957   -1.01960877    0.28513308
 S                  1.64081591   -0.38706993   -2.39303437
 S                  1.93957146    1.65491449   -0.34466662
 S                  1.63828335   -2.72349774   -0.06286234
 S                  1.83381869   -0.67343039    1.99119070
 S                  1.80581676   -4.93580967    2.01183104
 S                  1.56690008   -2.74248659    4.19901883
 S                  1.71900702    1.67222092   -4.61687039
 S                  1.96080883    3.87885662   -2.40521746
 Ni                 1.66147578   -4.91105598    4.17762863
 S                  2.00919096    3.82525197   -6.75159079
 S                  1.77027428    6.01857505   -4.56440299
 C                  1.89719574    5.46582516   -7.18630566
 C                  1.93036049    6.44969089   -6.20193525
 C                  1.95521724    7.74289498   -8.47973125
 S                  1.84169151    6.03902722   -8.82774788
 S                  2.03722686    8.08909457   -6.77369483
 C                  1.56867809   -7.50814853    5.79625267
 C                  1.65640471   -6.53000543    6.77616822
 C                  1.57114083   -8.80255268    8.07017368
 S                  1.43743612   -9.14837263    6.37062858
 S                  1.73619166   -7.10638820    8.41899633
 S                  1.51562659   -7.08910935    4.14682013
 S                  1.75742840   -4.88247365    6.35847307
 H                  1.55358188   -9.55895194    8.82677915
 H                  1.97277571    8.49929667   -9.23633430
 Ni                -1.86484997   -3.85000566   -4.58579320
 C                 -1.85978449   -2.23129656   -1.98749403
 C                 -1.77205786   -1.25315347   -2.96740957
 C                 -1.72695232    2.31283407    2.56295028
 C                 -1.69378757    3.29669979    1.57857988
 C                 -1.77452195    0.04119272   -0.69354655
 C                 -1.75180957    1.01960877    0.28513308
 S                 -1.93957146   -1.65491449   -0.34466662
 S                 -1.64081591    0.38706993   -2.39303437
 S                 -1.83381869    0.67343039    1.99119070
 S                 -1.63828335    2.72349774   -0.06286234
 S                 -1.56690008    2.74248659    4.19901883
 S                 -1.80581676    4.93580967    2.01183104
 S                 -1.96080883   -3.87885662   -2.40521746
 S                 -1.71900702   -1.67222092   -4.61687039
 Ni                -1.66147578    4.91105598    4.17762863
 S                 -1.77027428   -6.01857505   -4.56440299
 S                 -2.00919096   -3.82525197   -6.75159079
 C                 -1.93036049   -6.44969089   -6.20193525
 C                 -1.89719574   -5.46582516   -7.18630566
 C                 -1.95521724   -7.74289498   -8.47973125
 S                 -2.03722686   -8.08909457   -6.77369483
 S                 -1.84169151   -6.03902722   -8.82774788
 C                 -1.65640471    6.53000543    6.77616822
 C                 -1.56867809    7.50814853    5.79625267
 C                 -1.57114083    8.80255268    8.07017368
 S                 -1.73619166    7.10638820    8.41899633
 S                 -1.43743612    9.14837263    6.37062858
 S                 -1.75742840    4.88247365    6.35847307
 S                 -1.51562659    7.08910935    4.14682013
 H                 -1.97277571   -8.49929667   -9.23633430
 H                 -1.55358188    9.55895194    8.82677915

